30
Cis-triscyclobutacyclohexane
C 1.807243 -0.690798 -1.010302
C 2.586625 -0.347739 0.289531
H 2.780511 -1.287408 0.824124
H 2.466384 1.626679 1.283168
H 3.572440 0.036909 0.000000
H 0.983689 -1.374577 -0.786891
H 2.495817 -1.252036 -1.661995
C 1.288578 0.518974 -1.739541
C 1.951099 0.668237 1.223119
C 0.862198 0.518974 1.985712
H 1.983374 1.358380 -1.801822
H -2.103967 -1.287408 1.995931
C -1.778568 -0.690798 -1.059967
C -1.042572 -0.347739 -2.384849
H -0.676543 -1.287408 -2.820055
H -0.121936 1.626679 -2.777536
H -1.786220 0.036909 -3.093824
H -1.173312 -1.374577 -0.458454
H -2.687238 -1.252036 -1.330444
C -2.150776 0.518974 -0.246170
C 0.083702 0.668237 -2.301260
C -2.034801 0.668237 1.078142
H -2.552110 1.358380 -0.816741
H -2.344448 1.626679 1.494368
C -1.544054 -0.347739 2.095318
C -0.028674 -0.690798 2.070269
H 0.191421 -1.252036 2.992438
H 0.568736 1.358380 2.618563
H 0.189623 -1.374577 1.245345
H -1.786220 0.036909 3.093824