30
Cis-triscyclobutacyclohexane
C 0.000000 0.000000 0.000000
C 0.000000 0.000000 1.551632
H 0.973426 0.000000 2.052989
H -1.653336 -1.377602 2.204550
H -0.600061 0.818639 1.962804
H 0.929232 -0.407196 -0.409279
H -0.203099 0.950622 -0.505158
C -1.165397 -1.035030 0.042758
C -0.787125 -1.343935 1.532932
C 0.053502 -2.609292 1.760307
H -2.100665 -0.461419 0.047635
H 2.036737 -4.384032 0.146625
C 0.562030 -2.967838 -1.743354
C -0.541882 -2.028937 -2.297795
H -0.241631 -1.014889 -2.581472
H -2.392072 -2.403460 -1.075448
H -1.079006 -2.478184 -3.139808
H 1.400560 -2.407781 -1.319097
H 0.970587 -3.723660 -2.423011
C -0.457652 -3.464122 -0.673206
C -1.323068 -2.188150 -0.959709
C -0.076750 -3.819659 0.771782
H -0.979942 -4.326136 -1.106707
H -0.758033 -4.601777 1.127690
C 1.433629 -4.109575 1.018320
C 1.600244 -2.669994 1.572762
H 2.211447 -2.542971 2.472992
H -0.159433 -2.979186 2.771057
H 1.974025 -1.978928 0.811508
H 1.582180 -4.868565 1.793675