21
Cis-triscyclopropacyclohexane
H 0.000000 0.000000 0.000000
C 0.000000 0.000000 1.087522
C 1.211746 0.000000 4.333340
C -0.065187 1.363516 1.732037
H 1.994644 0.978297 1.044957
H -0.608089 1.472137 2.666650
H -0.149889 2.230695 1.081860
C 1.242524 0.609410 1.738458
C 1.843474 -0.032288 2.962682
H 0.007429 -2.980676 2.902031
C -0.013773 -1.893411 2.912480
H 1.869531 0.074348 5.195719
C -1.390168 -1.276139 2.970246
H -0.971476 -1.935396 0.907856
H -1.522300 -0.349174 3.520990
H -2.245294 -1.943816 3.040038
C -0.623562 -1.242275 1.670248
H 2.930891 -0.021434 2.952233
H 0.272971 0.531337 4.461499
C 1.210739 -1.292834 3.553979
H 1.915152 -2.045011 3.901452