21
Cis-triscyclopropacyclohexane
H 2.076944 -1.137875 1.181589
C 1.486502 -0.360667 0.707184
C -1.858680 0.685712 0.000000
C 0.929340 0.685712 1.609664
H -0.015186 -1.137875 2.389481
H 0.658144 1.631867 1.139939
H 1.468246 0.857609 2.543077
C -0.130812 -0.360667 1.640941
C -1.355690 -0.360667 0.933756
H -0.015186 -1.137875 -2.389481
C -0.130812 -0.360667 -1.640941
H -2.936492 0.857609 0.000000
C 0.929340 0.685712 -1.609664
H 2.076944 -1.137875 -1.181589
H 0.658144 1.631867 -1.139939
H 1.468246 0.857609 -2.543077
C 1.486502 -0.360667 -0.707184
H -2.061758 -1.137875 1.207892
H -1.316288 1.631867 0.000000
C -1.355690 -0.360667 -0.933756
H -2.061758 -1.137875 -1.207892